  
       XFOIL         Version 6.99
  
 Calculated polar for: Interpolated Airfoil Data                       
  
 1 1 Reynolds number fixed          Mach number fixed         
  
 xtrf =   1.000 (top)        1.000 (bottom)  
 Mach =   0.010     Re =     0.001 e 6     Ncrit =   9.000
  
   alpha    CL        CD       CDp       CM     Top_Xtr  Bot_Xtr
  ------ -------- --------- --------- -------- -------- --------
  -2.000  -0.0665   0.15389   0.06246  -0.0534   1.0000   1.0000
  -1.000   0.0422   0.15200   0.05262  -0.0641   1.0000   1.0000
   0.000   0.1511   0.15151   0.04472  -0.0718   1.0000   1.0000
   1.000   0.2548   0.15216   0.03988  -0.0772   1.0000   1.0000
   2.000   0.3510   0.15369   0.03784  -0.0807   1.0000   1.0000
   3.000   0.4405   0.15586   0.03813  -0.0828   1.0000   1.0000
   4.000   0.5201   0.15857   0.04114  -0.0842   1.0000   1.0000
